49

Y          0.00000        0.00000        0.00000
O         -0.66534       -1.90736        1.18519
O         -1.06398       -1.42002       -1.51292
O         -0.76255        0.82638        2.09717
O         -2.02054        1.11207       -0.34927
O          1.08251        2.00888        0.37000
O          0.21422        1.09558       -2.10486
O          1.79374       -0.47692        1.57270
O          1.77346       -1.16850       -1.08149
C         -1.17321       -3.02569        0.88540
C         -1.44489       -2.62318       -1.51845
C         -1.37365        1.89584        2.37107
C         -2.56018        2.09511        0.22276
C          1.03189        3.12781       -0.18986
C          0.25490        2.33232       -2.38463
C         -1.46448       -3.94277        2.05137
C         -1.50151       -3.43635       -0.39120
C         -1.87094       -3.19417       -2.85478
C         -1.15415        2.47835        3.73506
C         -2.23926        2.54748        1.49714
C         -3.64352        2.82205       -0.55492
C          1.45860        4.32104        0.63650
C          0.62121        3.33761       -1.51070
C         -0.07738        2.70006       -3.80503
H          1.31148       -1.02332        2.22630
H          1.90555        0.39604        1.99946
H          1.73401       -1.12708       -2.05467
H          2.70157       -1.31136       -0.83153
H         -0.54978       -4.09646        2.64328
H         -1.86452       -4.91816        1.74751
H         -2.19218       -3.44967        2.71338
H         -1.90283       -4.44203       -0.51093
H         -2.68716       -2.58216       -3.26598
H         -2.19819       -4.23931       -2.79217
H         -1.03367       -3.12074       -3.56481
H         -1.39537        1.72716        4.50250
H         -1.74827        3.38174        3.92021
H         -0.08782        2.72405        3.85944
H         -2.75229        3.43635        1.86295
H         -3.21970        3.20032       -1.49671
H         -4.08662        3.65629        0.00263
H         -4.43365        2.10611       -0.82523
H          0.77389        4.42491        1.49175
H          1.46104        5.25937        0.06887
H          2.46388        4.14378        1.04745
H          0.61695        4.36274       -1.87778
H          0.63776        2.21190       -4.48470
H         -0.06002        3.78150       -3.98991
H         -1.07145        2.30372       -4.05874
